[TITLE]
prueba

[JUNCTIONS]
;ID              	Elev        	Demand      	Pattern         
 RED1            	436.37      	0           	PT1             	;
 SW1             	427.20      	0.00388888888888889	PT1             	;
 SW2             	427.51      	0           	PT1             	;
 SW/SD           	427.6       	0           	PT1             	;
 SD1             	425.1       	0.00263888888888889	PT1             	;
 SW3             	427.51      	0           	PT1             	;
 SW4             	427.16      	0.0191666666666667	PT1             	;
 ZD4             	447         	0           	PT1             	;
 HP28            	430.49      	0.00875     	PT1             	;
 ZD5             	424.95      	0.0236574074074074	PT1             	;
 ZD6             	423.80      	0.00981481481481481	PT1             	;
 HP27            	418.60      	0.00412037037037037	PT1             	;
 ZD7             	418.40      	0           	PT1             	;
 SO/ZD           	417.93      	0           	PT1             	;
 ZD3             	417.93      	0.0159259259259259	PT1             	;
 ZD8             	417.92      	0           	PT1             	;
 SO2             	408.21      	0.0681481481481482	PT1             	;
 SO/SD           	406.4       	0           	PT1             	;
 ZD1             	427.48      	0.0124537037037037	PT1             	;
 ZD2             	420.98      	0.0151851851851852	PT1             	;
 SD11            	402.28      	0.014537037037037	PT1             	;
 SD12            	402.2       	0.0116666666666667	PT1             	;
 SO3             	406.45      	0.0327314814814815	PT1             	;
 SW/SO_Z         	407.38      	0.0987962962962963	PT1             	;
 SW/SO           	407.38      	0.018287037037037	PT1             	;
 SW5             	424.28      	0.0985648148148148	PT1             	;
 SW6             	422.98      	0.0226388888888889	PT1             	;
 SW6_Z           	422.98      	0           	PT1             	;
 HP26            	422.33      	0.0167592592592593	PT1             	;
 SW7.2           	421.5       	0           	PT1             	;
 SD3             	420.2       	0           	PT1             	;
 SD4             	420.2       	0           	PT1             	;
 SD2             	420.2       	0           	PT1             	;
 SD2.1           	418.0       	0           	PT1             	;
 SD5             	420.2       	0           	PT1             	;
 SD6             	419.75      	0.00986111111111111	PT1             	;
 HP9             	406.9       	0.057037037037037	PT1             	;PK1
 SD9             	406         	0.0106944444444444	PT1             	;
 SD10            	406         	0           	PT1             	;
 HP25            	420.30      	0.085787037037037	PT1             	;
 SW8             	423.11      	0.0410185185185185	PT1             	;
 SW/RO           	423.20      	0.0113425925925926	PT1             	;
 RO5             	423.20      	0           	PT1             	;
 RO4             	424.14      	0.0369444444444444	PT1             	;
 RO1             	439.98      	0.0218981481481481	PT1             	;
 RO2             	433.03      	0.0500462962962963	PT1             	;
 RO3             	427.72      	0.030787037037037	PT1             	;
 HP11            	417.85      	0.0184259259259259	PT1             	;
 SD7             	413.2       	0.0136111111111111	PT1             	;
 HP10            	411.97      	0.00791666666666667	PT1             	;
 SD8             	408.6       	0.0348148148148148	PT1             	;
 HP24            	423.3       	0.0325462962962963	PT1             	;
 HP23            	423.30      	0.0101666666666667	PT1             	;
 SW9             	420.6       	0           	PT1             	;
 SW/AN           	420.60      	0           	PT1             	;
 HP22            	420.31      	0.0260185185185185	PT1             	;
 SW10            	420.0       	0.01625     	PT1             	;
 SW/AN_Z         	421.0       	0           	PT1             	;
 AN1.1           	421.6       	0           	PT1             	;
 AN1             	422.3       	0.00712962962962963	PT1             	;
 AN/PO           	425.0       	0.0189351851851852	PT1             	;
 PO3             	428.8       	0.0131481481481481	PT1             	;
 HP14            	437.97      	0.0148611111111111	PT1             	;
 PO2             	438.1       	0.00976851851851852	PT1             	;
 PO1             	439.72      	0.0207407407407407	PT1             	;
 HP13            	442.96      	0.00944444444444444	PT1             	;
 AN2             	426.22      	0.0497222222222222	PT1             	;
 HP15            	430.10      	0.00962962962962963	PT1             	;
 AN/JPII1        	433.40      	0.0226851851851852	PT1             	;
 AN/JPII2        	433.4       	0.00291666666666667	PT1             	;
 JPII2           	422.05      	0           	PT1             	;
 JPII2.1         	422.05      	0.0571296296296296	PT1             	;
 JPII3           	412.12      	0           	PT1             	;
 JP21            	447         	0           	PT1             	;
 HP16            	423.86      	0           	PT1             	;
 SW11            	418.30      	0.00425925925925926	PT1             	;
 SW12            	417.60      	0.0758796296296296	PT1             	;
 SW13            	413.28      	0.152175925925926	PT1             	;
 SW14            	412.06      	0.0359722222222222	PT1             	;
 SW/JPII         	412.06      	0           	PT1             	;
 HP21            	412.06      	0           	PT1             	;
 SW15            	411.18      	0.0578240740740741	PT1             	;
 JPII4           	412.06      	0           	PT1             	;
 SW/P01          	410.44      	0           	PT1             	;
 SW16            	409.0       	0.0125      	PT1             	;
 HP20            	408.8       	0.0143981481481481	PT1             	;
 AN5             	413.99      	0.0173148148148148	PT1             	;
 AN3             	423.90      	0.0189814814814815	PT1             	;
 HP32            	427.96      	0.0267592592592593	PT1             	;
 SW17            	408.3       	0.00366666666666667	PT1             	;
 SW/ZA           	407.02      	0.0987962962962963	PT1             	;
 AN4             	418.82      	0.0356944444444444	PT1             	;
 SW/ZA_Z         	407.02      	0           	PT1             	;
 ZA1             	409.93      	0.0394907407407407	PT1             	;
 HP19            	402.10      	0.121944444444444	PT1             	;
 SW/LE           	401.96      	0.254166666666667	PT1             	;
 SW18            	400.4       	0.123194444444444	PT1             	;
 HP18            	396.64      	0.116805555555556	PT1             	;
 SW19            	393.8       	0.0385185185185185	PT1             	;
 LE0             	401.96      	0           	PT1             	;
 LE1             	404.49      	0.0201388888888889	PT1             	;
 SD17            	389.88      	0.0433796296296296	PT1             	;
 SD16            	389.8       	0.005       	PT1             	;
 LA1             	414         	0.00680555555555555	PT1             	;
 LA2             	398.03      	0.0127314814814815	PT1             	;
 HP12            	393.26      	0.00476851851851852	PT1             	;
 LA3             	391         	0.00652777777777778	PT1             	;
 SD/LA           	391         	0.00981481481481481	PT1             	;
 SD13            	399.32      	0.0739351851851852	PT1             	;
 HP8             	391.41      	0.0156018518518519	PT1             	;
 SD14            	393         	0.0211574074074074	PT1             	;
 HP7             	418         	0.0676851851851852	PT1             	;
 GO1.1           	411.5       	0           	PT1             	;
 GO16            	411.85      	0.0686574074074074	PT1             	;
 GO1             	410         	0           	PT1             	;
 GO2             	409.3       	0           	PT1             	;
 HP6             	409.21      	0.0807407407407407	PT1             	;
 GO3             	403.24      	0.0295925925925926	PT1             	;
 GO4             	401.5       	0.0206481481481481	PT1             	;
 GO5             	395.3       	0           	PT1             	;
 HP5             	392.6       	0.020462962962963	PT1             	;
 GO6             	390.53      	0           	PT1             	;
 SD/GO1          	390.50      	0           	PT1             	;
 SD/GO1.1        	390.50      	0           	PT1             	;
 SD19            	390.21      	0.00481481481481481	PT1             	;
 SW/GO_Z         	390.22      	0           	PT1             	;
 SW/GO           	390.22      	0.0114814814814815	PT1             	;
 SD18            	389.50      	0.0123148148148148	PT1             	;
 SD/GO01         	389.46      	0           	PT1             	;
 SD/GO           	389.46      	0.03        	PT1             	;
 SW20            	390.20      	0.0156944444444444	PT1             	;
 SW/P02          	410.43      	0.0450462962962963	PT1             	;
 SD15            	389.93      	0.0766111111111111	PT1             	;
 SW/K01          	390.0       	0           	PT1             	;
 K1              	390.0       	0           	PT1             	;
 SW/K02          	390.0       	0           	PT1             	;
 K2              	390.0       	0           	PT1             	;
 SW21            	389.92      	0.0245833333333333	PT1             	;
 SW/OB           	389.12      	0           	PT1             	;
 HP17            	389.12      	0.0290740740740741	PT1             	;
 HP1             	389.5       	0.020462962962963	PT1             	;
 OB1             	390.69      	0.00731481481481481	PT1             	;
 HP2             	392.76      	0.00287037037037037	PT1             	;
 OB2             	395.50      	0.102546    	PT1             	;
 SW7             	422.33      	0.0317592592592593	PT1             	;
 SW7.1           	421.84      	0.0266666666666667	PT1             	;
 P1              	410.44      	0           	PT1             	;
 P2              	410.44      	0           	PT1             	;
 LE2             	404.96      	0.0459259259259259	PT1             	;
 n155            	389.0       	0           	PT1             	;
 n156            	427.48      	0           	PT1             	;
 GO01            	408.05      	0           	PT1             	;
 SO3.1           	404         	0           	PT1             	;
 SO1             	409.1       	0           	PT1             	;
 K3              	390.0       	0           	PT1             	;
 J1              	436.37      	0           	                	;
 J2              	409.2       	0           	                	;
 SD10.1          	406.4       	0           	                	;
 J3              	407.38      	0           	                	;
 J4              	407.38      	0           	                	;
 J5              	410.44      	0           	                	;
 J7              	410.44      	0           	                	;
 P3              	410.44      	0           	                	;
 J6              	389.1       	0           	                	;
 J8              	389.9       	0           	                	;
 J10             	389.2       	0           	                	;
 J11             	390.22      	0           	                	;
 J12             	390.22      	0           	                	;
 J13             	395.3       	0           	                	;
 J14             	401.5       	0           	                	;
 J15             	409.21      	0           	                	;
 J16             	389.8       	0           	                	;
 J17             	394.5       	0           	                	;
 J18             	394.5       	0           	                	;
 J19             	402.2       	0           	                	;
 J20             	408.8       	0           	                	;
 J21             	408.8       	0           	                	;
 J22             	408.8       	0           	                	;
 J23             	409.1       	0           	                	;
 J24             	409         	0           	                	;
 J25             	417.9       	0           	                	;
 J27             	410.44      	0           	                	;
 J28             	410.43      	0           	                	;
 J30             	437.97      	0           	                	;
 J31             	437.97      	0           	                	;
 J32             	425         	0           	                	;
 J34             	423.20      	0           	                	;
 J35             	423.20      	0           	                	;
 J36             	436.37      	0           	                	;
 J37             	427.20      	0           	                	;
 J38             	427.20      	0           	                	;
 J41             	427.16      	0           	                	;
 J42             	430         	0           	                	;

[RESERVOIRS]
;ID              	Head        	Pattern         
 R1              	477         	                	;Ludwikowice
 R2              	470         	                	;Jugow
 R3              	438.2       	                	;

[TANKS]
;ID              	Elevation   	InitLevel   	MinLevel    	MaxLevel    	Diameter    	MinVol      	VolCurve        	Overflow

[PIPES]
;ID              	Node1           	Node2           	Length      	Diameter    	Roughness   	MinorLoss   	Status
 p1              	RED1            	J37             	218.2       	131         	0.05        	1.9         	Open  	;
 p2              	SW1             	SW2             	296.4       	131         	0.05        	2.5         	Open  	;
 p4              	SW/SD           	SD1             	43.92       	41          	0.05        	0.4         	Open  	;
 p5              	SW/SD           	SW3             	30.14       	250         	5           	0           	Open  	;
 p6              	SW3             	J41             	36.25       	184         	0.05        	0.4         	Open  	;
 p7              	ZD4             	HP28            	246.8       	51          	0.05        	2.1         	Open  	;
 p8              	HP28            	ZD5             	69.05       	100         	5           	0           	Open  	;
 p9              	ZD6             	HP27            	115.1       	100         	5           	0           	Open  	;
 p10             	ZD5             	ZD6             	26.88       	51          	0.05        	0.3         	Open  	;
 p11             	HP27            	ZD7             	5.255       	100         	5           	0           	Open  	;
 p12             	ZD7             	J25             	13.15       	90          	0.05        	0.1         	Open  	;
 p15             	SO2             	SO/SD           	82.93       	131         	0.05        	0.8         	Open  	;
 p16             	ZD1             	ZD2             	234.7       	131         	0.05        	2           	Open  	;
 p17             	ZD2             	ZD3             	154         	131         	0.05        	1.4         	Open  	;
 p18             	SO2             	SD11            	264.1       	100         	5           	0           	Open  	;
 p19             	SD11            	SD12            	88.55       	74          	0.05        	0.9         	Open  	;
 p20             	SO/SD           	SO3             	4.145       	90          	0.05        	0.1         	Open  	;
 p21             	SO3             	SW/SO_Z         	196.3       	90          	0.05        	1.7         	Open  	;
 p23             	SW4             	SW5             	268.7       	250         	5           	0           	Open  	;
 p24             	SW5             	SW6             	159         	250         	5           	0           	Open  	;
 p26             	SW6_Z           	HP26            	32.49       	74          	0.05        	0.4         	Open  	;
 p27             	HP26            	SW7.2           	66.92       	80          	5           	0           	Open  	;
 p28             	SW7.2           	SD3             	28.29       	90          	0.05        	0.3         	Open  	;
 p31             	SD2             	SD2.1           	7.038       	90          	0.05        	0.1         	Open  	;
 p33             	SD5             	SD6             	12.02       	90          	0.05        	0.1         	Open  	;
 p34             	HP9             	SD9             	286.5       	80          	5           	0           	Open  	;
 p35             	SD9             	SD10            	1.297       	90          	0.05        	0.1         	Open  	;
 p36             	SD10            	SD10.1          	10.16       	90          	0.05        	0.1         	Open  	;
 p37             	SW6             	HP25            	123.2       	250         	5           	0           	Open  	;
 p38             	SW8             	J34             	31.7        	184         	0.05        	0           	Open  	;
 p39             	RO5             	RO4             	26.44       	131         	0.05        	0           	Open  	;
 p40             	RO1             	RO2             	137         	80          	5           	0           	Open  	;
 p41             	RO4             	RO3             	106.2       	80          	5           	0           	Open  	;
 p42             	RO2             	RO3             	122.1       	80          	5           	0           	Open  	;
 p43             	SD6             	HP11            	155.5       	80          	5           	0           	Open  	;
 p44             	HP11            	SD7             	296.9       	80          	5           	0           	Open  	;
 p45             	SD7             	HP10            	156.6       	80          	5           	0           	Open  	;
 p46             	HP10            	SD8             	176.5       	80          	5           	0           	Open  	;
 p47             	SD8             	HP9             	178.8       	80          	5           	0           	Open  	;
 p48             	HP25            	SW8             	107.6       	250         	5           	0           	Open  	;
 p49             	J35             	HP24            	47.74       	184         	0.05        	0.5         	Open  	;
 p50             	HP24            	HP23            	169.5       	184         	0.05        	1.5         	Open  	;
 p51             	HP23            	SW9             	130.56      	184         	0.05        	1.2         	Open  	;
 p55             	HP22            	SW10            	6.702       	184         	0.05        	0.1         	Open  	;
 p57             	SW/AN_Z         	AN1.1           	1.874       	131         	0.05        	0           	Open  	;
 p58             	AN1.1           	AN1             	5.922       	150         	5           	0           	Open  	;
 p59             	AN1             	AN/PO           	47.05       	150         	5           	0           	Open  	;
 p60             	J32             	PO3             	50.89       	100         	5           	0           	Open  	;
 p61             	PO3             	J31             	77.2        	74          	0.05        	0.8         	Open  	;
 p62             	J30             	PO2             	2.254       	74          	0.05        	0.1         	Open  	;
 p63             	PO2             	PO1             	83.27       	100         	5           	0           	Open  	;
 p64             	PO1             	HP13            	99.72       	100         	5           	0           	Open  	;
 p65             	AN/PO           	AN2             	89.53       	150         	5           	0           	Open  	;
 p66             	AN2             	HP15            	100.4       	150         	5           	0           	Open  	;
 p67             	HP15            	AN/JPII1        	81.68       	100         	5           	0           	Open  	;
 p68             	AN/JPII1        	AN/JPII2        	0.8723      	100         	5           	0           	Open  	;
 p70             	JPII2           	JPII2.1         	26.89       	50          	5           	0           	Open  	;
 p71             	JPII2           	JPII3           	100.7       	80          	5           	0           	Open  	;
 p72             	AN/JPII1        	JP21            	119.2       	50          	5           	0           	Open  	;
 p73             	AN/JPII2        	HP16            	138.5       	80          	5           	0           	Open  	;
 p74             	SW10            	SW11            	70.09       	250         	5           	0           	Open  	;
 p75             	SW12            	SW13            	234.7       	250         	5           	0           	Open  	;
 p76             	SW11            	SW12            	19.33       	184         	0.05        	0.3         	Open  	;
 p77             	SW13            	SW14            	101         	184         	0.05        	1           	Open  	;
 p79             	SW/JPII         	HP21            	1.187       	184         	0.05        	0.1         	Open  	;
 p80             	HP21            	SW15            	12.46       	184         	0.05        	0.2         	Open  	;
 p83             	JPII4           	JPII3           	5.222       	74          	0.05        	0.1         	Open  	;
 p84             	SW15            	SW/P01          	55.76       	250         	5           	0           	Open  	;
 p85             	SW16            	J20             	17.62       	184         	0.05        	0.2         	Open  	;
 p86             	J22             	AN5             	110         	90          	0.05        	1           	Open  	;
 p87             	AN3             	HP32            	107         	90          	0.05        	1           	Open  	;
 p89             	J21             	SW17            	25.17       	184         	0.05        	0.2         	Open  	;
 p90             	SW17            	J3              	37.88       	250         	5           	0           	Open  	;
 p91             	J4              	SW/ZA           	19.52       	250         	5           	0           	Open  	;
 p92             	AN5             	AN4             	98.32       	90          	0.05        	0.9         	Open  	;
 p93             	AN4             	AN3             	111         	90          	0.05        	1           	Open  	;
 p95             	SW/ZA_Z         	ZA1             	51.91       	51          	0.05        	0.4         	Open  	;
 p96             	SW/ZA           	HP19            	232.6       	250         	5           	0           	Open  	;
 p97             	HP19            	SW/LE           	10.55       	250         	5           	0           	Open  	;
 p98             	SW/LE           	SW18            	83.4        	250         	5           	0           	Open  	;
 p99             	SW18            	HP18            	148.3       	250         	5           	0           	Open  	;
 p100            	HP18            	J17             	106.56      	250         	5           	0           	Open  	;
 p102            	LE0             	LE1             	49.47       	51          	0.05        	0.4         	Open  	;
 p103            	SD17            	SD16            	45.19       	51          	0.05        	0.3         	Open  	;
 p105            	LA1             	LA2             	222.9       	51          	0.05        	1.9         	Open  	;
 p106            	HP12            	LA3             	173.9       	51          	0.05        	1.5         	Open  	;
 p107            	LA3             	SD/LA           	2.105       	51          	0.05        	0.1         	Open  	;
 p108            	J19             	SD13            	227.7       	125         	5           	0           	Open  	;
 p109            	HP8             	SD/LA           	44.91       	150         	5           	0           	Open  	;
 p110            	SD13            	SD14            	220.1       	125         	5           	0           	Open  	;
 p111            	SD14            	HP8             	190.7       	125         	5           	0           	Open  	;
 p112            	HP7             	GO1.1           	199.6       	100         	5           	0           	Open  	;
 p113            	GO16            	GO1             	63.18       	50          	5           	0           	Open  	;
 p114            	GO1.1           	GO1             	20.99       	100         	5           	0           	Open  	;
 p115            	GO1             	GO2             	69.71       	100         	5           	0           	Open  	;
 p116            	GO2             	HP6             	18.37       	100         	5           	0           	Open  	;
 p117            	J15             	GO3             	140.8       	74          	0.05        	1.2         	Open  	;
 p118            	GO3             	J14             	128.4       	74          	0.05        	1.1         	Open  	;
 p119            	GO4             	GO5             	126.3       	90          	0.05        	1.1         	Open  	;
 p120            	J13             	HP5             	40          	131         	0.05        	0.4         	Open  	;
 p123            	SD/GO1.1        	SD19            	8.453       	131         	0.05        	0.1         	Open  	;
 p124            	HP5             	GO6             	125.7       	131         	0.05        	1.1         	Open  	;
 p125            	SD/GO1          	SW/GO_Z         	28.57       	131         	0.05        	0.3         	Open  	;
 p127            	SD18            	SD/GO01         	49.95       	131         	0.05        	0.5         	Open  	;
 p129            	SW20            	J11             	223.4       	147         	0.05        	1.9         	Open  	;
 p130            	SW/P02          	SW16            	65.74       	250         	5           	0           	Open  	;
 p132            	SD/LA           	SD15            	78.09       	150         	5           	0           	Open  	;
 p133            	J16             	SD15            	21.36       	100         	5           	0           	Open  	;
 p134            	SD15            	SD/GO           	83.13       	150         	5           	0           	Open  	;
 p135            	SD/GO           	SD19            	63.83       	150         	5           	0           	Open  	;
 p136            	J12             	SW/K01          	63.39       	184         	0.05        	0.6         	Open  	;
 p137            	K1              	SW/K01          	6.472       	131         	0.05        	0.1         	CV    	;
 p138            	K2              	SW/K02          	7.955       	131         	0.05        	0.1         	CV    	;
 p139            	SW/K02          	SW21            	88.89       	250         	5           	0           	Open  	;
 p140            	J8              	SW/OB           	68.78       	184         	0.05        	0.7         	Open  	;
 p142            	HP17            	HP1             	73.79       	90          	0.05        	0.7         	Open  	;
 p143            	HP1             	OB1             	80.73       	90          	0.05        	0.7         	Open  	;
 p144            	OB1             	HP2             	143.5       	90          	0.05        	1.2         	Open  	;
 p145            	HP2             	OB2             	149.3       	81.4        	0.5         	0           	Open  	;
 p146            	HP26            	SW7             	1.161       	51          	0.05        	0.1         	Open  	;
 p147            	SW7             	SW7.1           	68.82       	51          	0.05        	0.6         	Open  	;
 p150            	J28             	P3              	11.21       	90          	0.05        	0.1         	Closed	;
 p151            	LE1             	LE2             	61.75       	51          	0.05        	0.6         	Open  	;
 p152            	J6              	n155            	9.99        	184         	0.05        	0.1         	Open  	;
 p153            	ZD1             	n156            	6.627       	131         	0.05        	0.1         	Open  	;
 p154            	SW19            	SW20            	135.9       	250         	5           	0           	Open  	;
 p155            	GO2             	GO01            	46.2        	100         	5           	0           	Open  	;
 p157            	LA2             	HP12            	111.6       	51          	0.05        	1           	Open  	;
 p158            	SO3             	SO3.1           	3.876       	90          	0.05        	0.1         	Open  	;
 p159            	ZD8             	J23             	611.8       	131         	0.05        	5.1         	Open  	;
 p162            	K3              	SW/K01          	4.153       	131         	0.05        	0.1         	Open  	;
 p163            	K1              	SW/K02          	6.699       	131         	0.05        	0.1         	Open  	;
 p227            	AN3             	HP16            	5.3         	90          	0.05        	0.1         	Open  	;
 P88             	R1              	J36             	0.38        	131         	0.05        	0           	Open  	;
 P104            	R2              	n156            	5.70        	131         	0.05        	0           	Open  	;
 P131            	R3              	n155            	5.37        	184         	0.05        	0           	Open  	;
 P53             	SO2             	J24             	21.14       	131         	0.05        	0           	Open  	;
 P25             	J5              	J7              	0.2         	90          	0.05        	0           	Open  	;
 P81             	J7              	P1              	1           	90          	0.05        	0           	Open  	;
 P122            	P3              	P2              	1           	90          	0.05        	0.2         	Open  	;
 P22             	J10             	SW21            	12.48       	184         	0.05        	0           	Open  	;
 P121            	J18             	SW19            	58.72       	250         	5           	0           	Open  	;
 P126            	J27             	J7              	10.61       	90          	0.05        	0.1         	Closed	;
 P148            	J38             	SW1             	0.91        	131         	0.05        	0.1         	Open  	;
 P69             	AN/JPII2        	J42             	31.7        	80          	5           	0           	Open  	;

[PUMPS]
;ID              	Node1           	Node2           	Parameters
 PMP2            	P2              	J5              	HEAD C1	;
 PMP1            	P3              	J7              	HEAD C1	;

[VALVES]
;ID              	Node1           	Node2           	Diameter    	Type	Setting     	MinorLoss   